@<TRIPOS>MOLECULE
sele_vina_out.pdbqt
 25 28 0 0 0
SMALL
GASTEIGER

@<TRIPOS>ATOM
      1  C1       -37.6700  -17.9320  -22.7170 C.3     1  LIG1        0.0180
      2  C2       -36.0820  -17.6400  -20.7540 C.3     1  LIG1        0.0180
      3  C3       -35.0640  -11.8560  -23.4360 C.3     1  LIG1        0.0090
      4  C4       -31.6990  -18.8820  -25.5250 C.ar    1  LIG1       -0.0210
      5  C5       -31.4040  -17.5420  -25.3020 C.ar    1  LIG1       -0.0030
      6  C6       -32.8660  -19.4020  -24.9770 C.ar    1  LIG1        0.0830
      7  C7       -32.2850  -16.7810  -24.5390 C.ar    1  LIG1        0.0100
      8  C8       -36.8820  -14.8260  -21.6420 C.3     1  LIG1        0.0050
      9  C9       -36.5310  -13.3700  -22.0570 C.3     1  LIG1        0.0050
     10 C10       -35.2640  -17.7980  -23.0390 C.ar    1  LIG1        0.0510
     11 C11       -34.3770  -16.8110  -23.2940 C.ar    1  LIG1       -0.0150
     12 C12       -33.6760  -18.6230  -24.2500 C.ar    1  LIG1        0.0530
     13 C13       -33.3950  -17.3300  -24.0320 C.ar    1  LIG1        0.0020
     14 C14       -36.2870  -15.8230  -22.6220 C.3     1  LIG1        0.0060
     15 C15       -34.5110  -14.3200  -23.3890 C.3     1  LIG1       -0.0580
     16 C16       -34.8100  -15.6350  -22.6590 C.3     1  LIG1        0.0120
     17 C17       -36.3320  -17.3210  -22.2520 C.3     1  LIG1        0.0110
     18 C18       -35.0600  -13.1210  -22.5570 C.3     1  LIG1       -0.0440
     19  N1       -34.8220  -18.9000  -23.6380 N.ar    1  LIG1       -0.2550
     20 C19       -34.0720  -12.8160  -21.4320 C.3     1  LIG1        0.0020
     21 C20       -34.5050  -12.6170  -19.9810 C.3     1  LIG1        0.0040
     22  N2       -35.1870  -14.2680  -24.6840 N.4     1  LIG1        0.3800
     23 C21       -35.6780  -14.2590  -25.6960 C.3     1  LIG1       -0.1000
     24  H1       -36.0830  -14.4570  -24.2370 H       1  LIG1       -0.0860
     25  H2       -34.2950  -14.0460  -25.1270 H       1  LIG1       -0.0860
@<TRIPOS>BOND
     1    23    22    1
     2     4     5   ar
     3     4     6   ar
     4     5     7   ar
     5    25    22    1
     6     6    12   ar
     7    22    24    1
     8    22    15    1
     9     7    13   ar
    10    12    13   ar
    11    12    19   ar
    12    13    11   ar
    13    19    10   ar
    14     3    18    1
    15    15    16    1
    16    15    18    1
    17    11    10   ar
    18    11    16    1
    19    10    17    1
    20     1    17    1
    21    16    14    1
    22    14    17    1
    23    14     8    1
    24    18     9    1
    25    18    20    1
    26    17     2    1
    27     9     8    1
    28    20    21    1
@<TRIPOS>MOLECULE
sele_vina_out.pdbqt
 25 28 0 0 0
SMALL
GASTEIGER

@<TRIPOS>ATOM
      1  C1       -38.7520  -19.0220  -22.3580 C.3     1  LIG1        0.0180
      2  C2       -38.0450  -18.0690  -24.6050 C.3     1  LIG1        0.0180
      3  C3       -32.4260  -20.9060  -23.1710 C.3     1  LIG1        0.0090
      4  C4       -35.0870  -13.7370  -20.6060 C.ar    1  LIG1       -0.0210
      5  C5       -33.9600  -14.3810  -21.1030 C.ar    1  LIG1       -0.0030
      6  C6       -36.3300  -14.3160  -20.8300 C.ar    1  LIG1        0.0830
      7  C7       -34.1230  -15.5730  -21.8020 C.ar    1  LIG1        0.0100
      8  C8       -36.2130  -20.4560  -24.0670 C.3     1  LIG1        0.0050
      9  C9       -34.8050  -21.1070  -23.9750 C.3     1  LIG1        0.0050
     10 C10       -37.0910  -17.2560  -22.5220 C.ar    1  LIG1        0.0510
     11 C11       -35.7430  -17.2010  -22.6080 C.ar    1  LIG1       -0.0150
     12 C12       -36.4280  -15.4640  -21.5110 C.ar    1  LIG1        0.0530
     13 C13       -35.3430  -16.0880  -21.9910 C.ar    1  LIG1        0.0020
     14 C14       -36.3480  -19.3230  -23.0640 C.3     1  LIG1        0.0060
     15 C15       -33.9400  -18.9010  -22.9080 C.3     1  LIG1       -0.0580
     16 C16       -35.2880  -18.3120  -23.3370 C.3     1  LIG1        0.0120
     17 C17       -37.5870  -18.4090  -23.1620 C.3     1  LIG1        0.0110
     18 C18       -33.5880  -20.1230  -23.8100 C.3     1  LIG1       -0.0440
     19  N1       -37.4930  -16.1860  -21.8420 N.ar    1  LIG1       -0.2550
     20 C19       -33.0320  -19.6060  -25.1360 C.3     1  LIG1        0.0020
     21 C20       -32.1130  -18.3900  -25.2310 C.3     1  LIG1        0.0040
     22  N2       -33.9940  -19.4030  -21.5360 N.4     1  LIG1        0.3800
     23 C21       -34.0690  -19.8140  -20.4920 C.3     1  LIG1       -0.1000
     24  H1       -33.0110  -19.6700  -21.5830 H       1  LIG1       -0.0860
     25  H2       -34.9680  -19.1060  -21.4770 H       1  LIG1       -0.0860
@<TRIPOS>BOND
     1    21    20    1
     2    20    18    1
     3     2    17    1
     4     8     9    1
     5     8    14    1
     6     9    18    1
     7    18     3    1
     8    18    15    1
     9    16    14    1
    10    16    15    1
    11    16    11    1
    12    17    14    1
    13    17    10    1
    14    17     1    1
    15    15    22    1
    16    11    10   ar
    17    11    13   ar
    18    10    19   ar
    19    13     7   ar
    20    13    12   ar
    21    19    12   ar
    22     7     5   ar
    23    24    22    1
    24    22    25    1
    25    22    23    1
    26    12     6   ar
    27     5     4   ar
    28     6     4   ar
@<TRIPOS>MOLECULE
sele_vina_out.pdbqt
 25 28 0 0 0
SMALL
GASTEIGER

@<TRIPOS>ATOM
      1  C1       -32.6810  -19.0160  -25.4080 C.3     1  LIG1        0.0180
      2  C2       -32.2370  -19.9960  -23.1050 C.3     1  LIG1        0.0180
      3  C3       -38.6820  -20.2010  -22.7990 C.3     1  LIG1        0.0090
      4  C4       -33.9120  -13.8570  -21.3700 C.ar    1  LIG1       -0.0210
      5  C5       -35.0230  -14.5320  -20.8800 C.ar    1  LIG1       -0.0030
      6  C6       -33.0520  -14.5330  -22.2270 C.ar    1  LIG1        0.0830
      7  C7       -35.2260  -15.8540  -21.2640 C.ar    1  LIG1        0.0100
      8  C8       -35.0140  -20.9700  -23.9350 C.3     1  LIG1        0.0050
      9  C9       -36.5280  -21.1820  -23.6600 C.3     1  LIG1        0.0050
     10 C10       -33.2570  -17.8060  -23.3800 C.ar    1  LIG1        0.0510
     11 C11       -34.3560  -17.6940  -22.6000 C.ar    1  LIG1       -0.0150
     12 C12       -33.2960  -15.8060  -22.5620 C.ar    1  LIG1        0.0530
     13 C13       -34.3670  -16.4610  -22.0910 C.ar    1  LIG1        0.0020
     14 C14       -34.6670  -19.4900  -23.9240 C.3     1  LIG1        0.0060
     15 C15       -36.5690  -18.8460  -22.5210 C.3     1  LIG1       -0.0580
     16 C16       -35.0400  -18.9210  -22.5990 C.3     1  LIG1        0.0120
     17 C17       -33.1760  -19.0930  -23.9480 C.3     1  LIG1        0.0110
     18 C18       -37.1680  -20.2860  -22.5360 C.3     1  LIG1       -0.0440
     19  N1       -32.6230  -16.6380  -23.3500 N.ar    1  LIG1       -0.2550
     20 C19       -37.0440  -20.8790  -21.1330 C.3     1  LIG1        0.0020
     21 C20       -37.1850  -20.0410  -19.8640 C.3     1  LIG1        0.0040
     22  N2       -37.1250  -18.1560  -23.6830 N.4     1  LIG1        0.3800
     23 C21       -37.5440  -17.5860  -24.5580 C.3     1  LIG1       -0.1000
     24  H1       -36.4980  -18.6680  -24.3030 H       1  LIG1       -0.0860
     25  H2       -37.7750  -17.6670  -23.0680 H       1  LIG1       -0.0860
@<TRIPOS>BOND
     1     1    17    1
     2    23    22    1
     3    24    22    1
     4    17    14    1
     5    17    10    1
     6    17     2    1
     7     8    14    1
     8     8     9    1
     9    14    16    1
    10    22    25    1
    11    22    15    1
    12     9    18    1
    13    10    19   ar
    14    10    11   ar
    15    19    12   ar
    16     3    18    1
    17    11    16    1
    18    11    13   ar
    19    16    15    1
    20    12     6   ar
    21    12    13   ar
    22    18    15    1
    23    18    20    1
    24     6     4   ar
    25    13     7   ar
    26     4     5   ar
    27     7     5   ar
    28    20    21    1
@<TRIPOS>MOLECULE
sele_vina_out.pdbqt
 25 28 0 0 0
SMALL
GASTEIGER

@<TRIPOS>ATOM
      1  C1       -36.8560  -15.6340  -25.6430 C.3     1  LIG1        0.0180
      2  C2       -34.9880  -13.9560  -26.0390 C.3     1  LIG1        0.0180
      3  C3       -31.4990  -18.2060  -22.6560 C.3     1  LIG1        0.0090
      4  C4       -36.4320  -12.5180  -19.7660 C.ar    1  LIG1       -0.0210
      5  C5       -35.1810  -13.0910  -19.5760 C.ar    1  LIG1       -0.0030
      6  C6       -37.0500  -12.6750  -21.0010 C.ar    1  LIG1        0.0830
      7  C7       -34.5990  -13.7950  -20.6260 C.ar    1  LIG1        0.0100
      8  C8       -33.6340  -16.6530  -25.5500 C.3     1  LIG1        0.0050
      9  C9       -32.5870  -17.5480  -24.8310 C.3     1  LIG1        0.0050
     10 C10       -35.8920  -14.3520  -23.8170 C.ar    1  LIG1        0.0510
     11 C11       -34.8940  -14.5390  -22.9250 C.ar    1  LIG1       -0.0150
     12 C12       -36.4430  -13.3610  -21.9770 C.ar    1  LIG1        0.0530
     13 C13       -35.2360  -13.9160  -21.7970 C.ar    1  LIG1        0.0020
     14 C14       -34.6230  -16.0740  -24.5520 C.3     1  LIG1        0.0060
     15 C15       -33.1090  -16.2610  -22.6350 C.3     1  LIG1       -0.0580
     16 C16       -33.8720  -15.2840  -23.5380 C.3     1  LIG1        0.0120
     17 C17       -35.5940  -14.9800  -25.0430 C.3     1  LIG1        0.0110
     18 C18       -32.0210  -17.0050  -23.4670 C.3     1  LIG1       -0.0440
     19  N1       -36.8370  -13.6330  -23.2160 N.ar    1  LIG1       -0.2550
     20 C19       -30.8130  -16.0830  -23.6270 C.3     1  LIG1        0.0020
     21 C20       -29.8220  -16.2080  -24.7810 C.3     1  LIG1        0.0040
     22  N2       -33.9970  -17.2910  -22.1000 N.4     1  LIG1        0.3800
     23 C21       -34.7160  -18.0600  -21.7040 C.3     1  LIG1       -0.1000
     24  H1       -33.4950  -18.0100  -22.6190 H       1  LIG1       -0.0860
     25  H2       -34.4800  -16.5760  -21.5560 H       1  LIG1       -0.0860
@<TRIPOS>BOND
     1     2    17    1
     2     1    17    1
     3     8     9    1
     4     8    14    1
     5    17    14    1
     6    17    10    1
     7     9    18    1
     8    21    20    1
     9    14    16    1
    10    10    19   ar
    11    10    11   ar
    12    20    18    1
    13    16    11    1
    14    16    15    1
    15    18     3    1
    16    18    15    1
    17    19    12   ar
    18    11    13   ar
    19    15    22    1
    20    24    22    1
    21    22    23    1
    22    22    25    1
    23    12    13   ar
    24    12     6   ar
    25    13     7   ar
    26     6     4   ar
    27     7     5   ar
    28     4     5   ar
@<TRIPOS>MOLECULE
sele_vina_out.pdbqt
 25 28 0 0 0
SMALL
GASTEIGER

@<TRIPOS>ATOM
      1  C1       -30.7070  -17.0660  -24.8640 C.3     1  LIG1        0.0180
      2  C2       -32.2680  -18.6400  -26.1070 C.3     1  LIG1        0.0180
      3  C3       -36.8480  -14.8820  -23.5420 C.3     1  LIG1        0.0090
      4  C4       -32.9820  -21.0030  -19.9910 C.ar    1  LIG1       -0.0210
      5  C5       -34.2430  -20.4460  -20.1570 C.ar    1  LIG1       -0.0030
      6  C6       -31.9880  -20.6760  -20.9060 C.ar    1  LIG1        0.0830
      7  C7       -34.4600  -19.5870  -21.2310 C.ar    1  LIG1        0.0100
      8  C8       -33.8050  -16.0240  -25.7280 C.3     1  LIG1        0.0050
      9  C9       -35.0660  -15.2290  -25.2880 C.3     1  LIG1        0.0050
     10 C10       -32.1850  -18.5880  -23.6770 C.ar    1  LIG1        0.0510
     11 C11       -33.4320  -18.5180  -23.1620 C.ar    1  LIG1       -0.0150
     12 C12       -32.2530  -19.8460  -21.9210 C.ar    1  LIG1        0.0530
     13 C13       -33.4690  -19.3050  -22.0850 C.ar    1  LIG1        0.0020
     14 C14       -33.1920  -16.7580  -24.5470 C.3     1  LIG1        0.0060
     15 C15       -35.2710  -16.8320  -23.2530 C.3     1  LIG1       -0.0580
     16 C16       -34.2130  -17.6780  -23.9720 C.3     1  LIG1        0.0120
     17 C17       -32.0730  -17.7820  -24.8280 C.3     1  LIG1        0.0110
     18 C18       -36.0400  -15.9580  -24.2900 C.3     1  LIG1       -0.0440
     19  N1       -31.4740  -19.4010  -22.9010 N.ar    1  LIG1       -0.2550
     20 C19       -37.0880  -16.8290  -24.9800 C.3     1  LIG1        0.0020
     21 C20       -37.9350  -17.8560  -24.2310 C.3     1  LIG1        0.0040
     22  N2       -34.6540  -15.9050  -22.3070 N.4     1  LIG1        0.3800
     23 C21       -34.1420  -15.2150  -21.5810 C.3     1  LIG1       -0.1000
     24  H1       -34.8960  -15.1160  -22.9050 H       1  LIG1       -0.0860
     25  H2       -34.4410  -16.6910  -21.6920 H       1  LIG1       -0.0860
@<TRIPOS>BOND
     1     2    17    1
     2     8     9    1
     3     8    14    1
     4     9    18    1
     5    20    18    1
     6    20    21    1
     7     1    17    1
     8    17    14    1
     9    17    10    1
    10    14    16    1
    11    18     3    1
    12    18    15    1
    13    16    15    1
    14    16    11    1
    15    10    11   ar
    16    10    19   ar
    17    15    22    1
    18    11    13   ar
    19    24    22    1
    20    19    12   ar
    21    22    25    1
    22    22    23    1
    23    13    12   ar
    24    13     7   ar
    25    12     6   ar
    26     7     5   ar
    27     6     4   ar
    28     5     4   ar
@<TRIPOS>MOLECULE
sele_vina_out.pdbqt
 25 28 0 0 0
SMALL
GASTEIGER

@<TRIPOS>ATOM
      1  C1       -33.1200  -17.0220  -25.2040 C.3     1  LIG1        0.0180
      2  C2       -31.8510  -17.7970  -23.1430 C.3     1  LIG1        0.0180
      3  C3       -37.7130  -19.6590  -21.1820 C.3     1  LIG1        0.0090
      4  C4       -34.5290  -12.2620  -20.7550 C.ar    1  LIG1       -0.0210
      5  C5       -35.2590  -13.1910  -20.0250 C.ar    1  LIG1       -0.0030
      6  C6       -33.7800  -12.7130  -21.8360 C.ar    1  LIG1        0.0830
      7  C7       -35.2100  -14.5290  -20.4020 C.ar    1  LIG1        0.0100
      8  C8       -34.4020  -19.4780  -23.2670 C.3     1  LIG1        0.0050
      9  C9       -35.6840  -20.0690  -22.6170 C.3     1  LIG1        0.0050
     10 C10       -33.4340  -15.9540  -23.0430 C.ar    1  LIG1        0.0510
     11 C11       -34.2800  -16.1120  -22.0010 C.ar    1  LIG1       -0.0150
     12 C12       -33.7680  -14.0130  -22.1540 C.ar    1  LIG1        0.0530
     13 C13       -34.4730  -14.9120  -21.4510 C.ar    1  LIG1        0.0020
     14 C14       -34.4560  -17.9600  -23.2790 C.3     1  LIG1        0.0060
     15 C15       -36.0220  -17.7970  -21.4020 C.3     1  LIG1       -0.0580
     16 C16       -34.6010  -17.4740  -21.8780 C.3     1  LIG1        0.0120
     17 C17       -33.1770  -17.1900  -23.6710 C.3     1  LIG1        0.0110
     18 C18       -36.2130  -19.3420  -21.3260 C.3     1  LIG1       -0.0440
     19  N1       -33.1360  -14.6610  -23.1260 N.ar    1  LIG1       -0.2550
     20 C19       -35.5780  -19.8490  -20.0320 C.3     1  LIG1        0.0020
     21 C20       -34.4800  -20.9100  -20.0090 C.3     1  LIG1        0.0040
     22  N2       -37.0220  -17.3030  -22.3470 N.4     1  LIG1        0.3800
     23 C21       -37.7700  -16.8830  -23.0750 C.3     1  LIG1       -0.1000
     24  H1       -36.8330  -18.0850  -22.9730 H       1  LIG1       -0.0860
     25  H2       -37.2330  -16.5380  -21.7060 H       1  LIG1       -0.0860
@<TRIPOS>BOND
     1     1    17    1
     2    17    14    1
     3    17     2    1
     4    17    10    1
     5    14     8    1
     6    14    16    1
     7     8     9    1
     8    19    10   ar
     9    19    12   ar
    10    23    22    1
    11    10    11   ar
    12    24    22    1
    13     9    18    1
    14    22    25    1
    15    22    15    1
    16    12     6   ar
    17    12    13   ar
    18    11    16    1
    19    11    13   ar
    20    16    15    1
    21     6     4   ar
    22    13     7   ar
    23    15    18    1
    24    18     3    1
    25    18    20    1
    26     4     5   ar
    27     7     5   ar
    28    20    21    1
@<TRIPOS>MOLECULE
sele_vina_out.pdbqt
 25 28 0 0 0
SMALL
GASTEIGER

@<TRIPOS>ATOM
      1  C1       -31.9810  -17.8740  -22.3620 C.3     1  LIG1        0.0180
      2  C2       -32.2750  -17.3670  -24.8350 C.3     1  LIG1        0.0180
      3  C3       -36.8080  -13.3110  -22.6720 C.3     1  LIG1        0.0090
      4  C4       -37.5210  -21.2510  -23.8890 C.ar    1  LIG1       -0.0210
      5  C5       -38.1780  -20.0430  -24.0880 C.ar    1  LIG1       -0.0030
      6  C6       -36.1480  -21.2300  -23.6730 C.ar    1  LIG1        0.0830
      7  C7       -37.4360  -18.8660  -24.0650 C.ar    1  LIG1        0.0100
      8  C8       -33.2930  -14.9120  -23.3240 C.3     1  LIG1        0.0050
      9  C9       -34.3710  -13.8280  -23.0420 C.3     1  LIG1        0.0050
     10 C10       -34.0060  -18.4950  -23.5540 C.ar    1  LIG1        0.0510
     11 C11       -35.2100  -17.9220  -23.7770 C.ar    1  LIG1       -0.0150
     12 C12       -35.4850  -20.0670  -23.6620 C.ar    1  LIG1        0.0530
     13 C13       -36.1150  -18.8990  -23.8530 C.ar    1  LIG1        0.0020
     14 C14       -33.8360  -16.3000  -23.0310 C.3     1  LIG1        0.0060
     15 C15       -36.1840  -15.6670  -23.3310 C.3     1  LIG1       -0.0580
     16 C16       -35.0410  -16.5310  -23.8760 C.3     1  LIG1        0.0120
     17 C17       -32.9950  -17.5170  -23.4680 C.3     1  LIG1        0.0110
     18 C18       -35.8350  -14.1580  -23.5120 C.3     1  LIG1       -0.0440
     19  N1       -34.1940  -19.8090  -23.4800 N.ar    1  LIG1       -0.2550
     20 C19       -36.1190  -13.7640  -24.9610 C.3     1  LIG1        0.0020
     21 C20       -35.3760  -12.6350  -25.6720 C.3     1  LIG1        0.0040
     22  N2       -36.3700  -15.8790  -21.8970 N.4     1  LIG1        0.3800
     23 C21       -36.4930  -16.0810  -20.7980 C.3     1  LIG1       -0.1000
     24  H1       -35.9010  -14.9960  -21.6940 H       1  LIG1       -0.0860
     25  H2       -36.8680  -16.7460  -22.1010 H       1  LIG1       -0.0860
@<TRIPOS>BOND
     1    21    20    1
     2    20    18    1
     3     2    17    1
     4     5     7   ar
     5     5     4   ar
     6     7    13   ar
     7     4     6   ar
     8    16    11    1
     9    16    15    1
    10    16    14    1
    11    13    11   ar
    12    13    12   ar
    13    11    10   ar
    14     6    12   ar
    15    12    19   ar
    16    10    19   ar
    17    10    17    1
    18    18    15    1
    19    18     9    1
    20    18     3    1
    21    17    14    1
    22    17     1    1
    23    15    22    1
    24     8     9    1
    25     8    14    1
    26    25    22    1
    27    22    24    1
    28    22    23    1
@<TRIPOS>MOLECULE
sele_vina_out.pdbqt
 25 28 0 0 0
SMALL
GASTEIGER

@<TRIPOS>ATOM
      1  C1       -37.6270  -17.0710  -24.7780 C.3     1  LIG1        0.0180
      2  C2       -36.7530  -15.3290  -23.1470 C.3     1  LIG1        0.0180
      3  C3       -31.1160  -18.2930  -24.2000 C.3     1  LIG1        0.0090
      4  C4       -36.9690  -20.5620  -19.1380 C.ar    1  LIG1       -0.0210
      5  C5       -35.5910  -20.4180  -19.2340 C.ar    1  LIG1       -0.0030
      6  C6       -37.7710  -19.8590  -20.0290 C.ar    1  LIG1        0.0830
      7  C7       -35.0720  -19.5770  -20.2140 C.ar    1  LIG1        0.0100
      8  C8       -34.3630  -16.1980  -24.8430 C.3     1  LIG1        0.0050
      9  C9       -32.8990  -16.6980  -24.9890 C.3     1  LIG1        0.0050
     10 C10       -36.8160  -17.6910  -22.5720 C.ar    1  LIG1        0.0510
     11 C11       -35.6310  -18.0840  -22.0530 C.ar    1  LIG1       -0.0150
     12 C12       -37.2180  -19.0620  -20.9510 C.ar    1  LIG1        0.0530
     13 C13       -35.8880  -18.9210  -21.0470 C.ar    1  LIG1        0.0020
     14 C14       -35.2040  -17.2120  -24.0870 C.3     1  LIG1        0.0060
     15 C15       -33.3010  -18.2380  -22.9350 C.3     1  LIG1       -0.0580
     16 C16       -34.5940  -17.4370  -22.7470 C.3     1  LIG1        0.0120
     17 C17       -36.6210  -16.7940  -23.6420 C.3     1  LIG1        0.0110
     18 C18       -32.2630  -17.3830  -23.7240 C.3     1  LIG1       -0.0440
     19  N1       -37.7770  -18.3050  -21.8890 N.ar    1  LIG1       -0.2550
     20 C19       -31.6080  -16.3980  -22.7560 C.3     1  LIG1        0.0020
     21 C20       -32.3000  -15.1240  -22.2760 C.3     1  LIG1        0.0040
     22  N2       -33.5350  -19.4410  -23.7310 N.4     1  LIG1        0.3800
     23 C21       -33.6840  -20.3530  -24.3730 C.3     1  LIG1       -0.1000
     24  H1       -33.3330  -20.0290  -22.9230 H       1  LIG1       -0.0860
     25  H2       -33.7680  -18.8530  -24.5320 H       1  LIG1       -0.0860
@<TRIPOS>BOND
     1     9     8    1
     2     9    18    1
     3     8    14    1
     4     1    17    1
     5    25    22    1
     6    23    22    1
     7     3    18    1
     8    14    17    1
     9    14    16    1
    10    22    15    1
    11    22    24    1
    12    18    15    1
    13    18    20    1
    14    17     2    1
    15    17    10    1
    16    15    16    1
    17    20    21    1
    18    16    11    1
    19    10    11   ar
    20    10    19   ar
    21    11    13   ar
    22    19    12   ar
    23    13    12   ar
    24    13     7   ar
    25    12     6   ar
    26     7     5   ar
    27     6     4   ar
    28     5     4   ar
@<TRIPOS>MOLECULE
sele_vina_out.pdbqt
 25 28 0 0 0
SMALL
GASTEIGER

@<TRIPOS>ATOM
      1  C1       -33.9560  -15.3760  -25.7580 C.3     1  LIG1        0.0180
      2  C2       -36.4690  -15.2000  -26.0930 C.3     1  LIG1        0.0180
      3  C3       -36.1300  -11.4620  -20.8410 C.3     1  LIG1        0.0090
      4  C4       -36.3340  -19.5190  -21.1100 C.ar    1  LIG1       -0.0210
      5  C5       -36.8640  -18.4260  -20.4360 C.ar    1  LIG1       -0.0030
      6  C6       -35.7830  -19.3160  -22.3690 C.ar    1  LIG1        0.0830
      7  C7       -36.8230  -17.1770  -21.0490 C.ar    1  LIG1        0.0100
      8  C8       -35.6340  -12.7170  -24.5190 C.3     1  LIG1        0.0050
      9  C9       -35.7920  -11.7380  -23.3220 C.3     1  LIG1        0.0050
     10 C10       -35.5190  -16.3600  -24.1790 C.ar    1  LIG1        0.0510
     11 C11       -36.1200  -15.9590  -23.0360 C.ar    1  LIG1       -0.0150
     12 C12       -35.7710  -18.0930  -22.9120 C.ar    1  LIG1        0.0530
     13 C13       -36.2820  -17.0350  -22.2640 C.ar    1  LIG1        0.0020
     14 C14       -35.2920  -14.1140  -24.0290 C.3     1  LIG1        0.0060
     15 C15       -36.2640  -13.7930  -21.8040 C.3     1  LIG1       -0.0580
     16 C16       -36.3720  -14.5790  -23.1150 C.3     1  LIG1        0.0120
     17 C17       -35.3220  -15.2700  -25.0500 C.3     1  LIG1        0.0110
     18 C18       -36.5660  -12.2860  -22.0670 C.3     1  LIG1       -0.0440
     19  N1       -35.3070  -17.6690  -24.0830 N.ar    1  LIG1       -0.2550
     20 C19       -38.0800  -12.1000  -22.1490 C.3     1  LIG1        0.0020
     21 C20       -38.7450  -11.1380  -23.1310 C.3     1  LIG1        0.0040
     22  N2       -34.9090  -13.8540  -21.2600 N.4     1  LIG1        0.3800
     23 C21       -33.8520  -13.9190  -20.8800 C.3     1  LIG1       -0.1000
     24  H1       -34.9310  -12.8540  -21.0610 H       1  LIG1       -0.0860
     25  H2       -34.8980  -14.8600  -21.4280 H       1  LIG1       -0.0860
@<TRIPOS>BOND
     1     2    17    1
     2     1    17    1
     3    17    10    1
     4    17    14    1
     5     8    14    1
     6     8     9    1
     7    10    19   ar
     8    10    11   ar
     9    19    12   ar
    10    14    16    1
    11     9    18    1
    12    21    20    1
    13    16    11    1
    14    16    15    1
    15    11    13   ar
    16    12     6   ar
    17    12    13   ar
    18     6     4   ar
    19    13     7   ar
    20    20    18    1
    21    18    15    1
    22    18     3    1
    23    15    22    1
    24    25    22    1
    25    22    24    1
    26    22    23    1
    27     4     5   ar
    28     7     5   ar
