MODEL 1
REMARK VINA RESULT:    -7.854      0.000      0.000
REMARK INTER + INTRA:          -8.907
REMARK INTER:                  -8.756
REMARK INTRA:                  -0.151
REMARK UNBOUND:                -0.134
REMARK Flexibility Score: inf
REMARK Active torsions [ 2 ] -> [ 2 ]
ROOT
ATOM      1  C1  LIG L   1     -37.670 -17.932 -22.717  1.00  0.00     0.018 C 
ATOM      2  C2  LIG L   1     -36.082 -17.640 -20.754  1.00  0.00     0.018 C 
ATOM      3  C3  LIG L   1     -35.064 -11.856 -23.436  1.00  0.00     0.009 C 
ATOM      4  C4  LIG L   1     -31.699 -18.882 -25.525  1.00  0.00    -0.021 C 
ATOM      5  C5  LIG L   1     -31.404 -17.542 -25.302  1.00  0.00    -0.003 C 
ATOM      6  C6  LIG L   1     -32.866 -19.402 -24.977  1.00  0.00     0.083 C 
ATOM      7  C7  LIG L   1     -32.285 -16.781 -24.539  1.00  0.00     0.010 C 
ATOM      8  C8  LIG L   1     -36.882 -14.826 -21.642  1.00  0.00     0.005 C 
ATOM      9  C9  LIG L   1     -36.531 -13.370 -22.057  1.00  0.00     0.005 C 
ATOM     10 C10  LIG L   1     -35.264 -17.798 -23.039  1.00  0.00     0.051 C 
ATOM     11 C11  LIG L   1     -34.377 -16.811 -23.294  1.00  0.00    -0.015 C 
ATOM     12 C12  LIG L   1     -33.676 -18.623 -24.250  1.00  0.00     0.053 C 
ATOM     13 C13  LIG L   1     -33.395 -17.330 -24.032  1.00  0.00     0.002 C 
ATOM     14 C14  LIG L   1     -36.287 -15.823 -22.622  1.00  0.00     0.006 C 
ATOM     15 C15  LIG L   1     -34.511 -14.320 -23.389  1.00  0.00    -0.058 C 
ATOM     16 C16  LIG L   1     -34.810 -15.635 -22.659  1.00  0.00     0.012 C 
ATOM     17 C17  LIG L   1     -36.332 -17.321 -22.252  1.00  0.00     0.011 C 
ATOM     18 C18  LIG L   1     -35.060 -13.121 -22.557  1.00  0.00    -0.044 C 
ATOM     19  N1  LIG L   1     -34.822 -18.900 -23.638  1.00  0.00    -0.255 NA
ENDROOT
BRANCH   18   20
ATOM     20 C19  LIG L   1     -34.072 -12.816 -21.432  1.00  0.00     0.002 C 
ATOM     21 C20  LIG L   1     -34.505 -12.617 -19.981  1.00  0.00     0.004 C 
ENDBRANCH   18   20
BRANCH   15   22
ATOM     22  N2  LIG L   1     -35.187 -14.268 -24.684  1.00  0.00     0.380 N 
ATOM     23 C21  LIG L   1     -35.678 -14.259 -25.696  1.00  0.00    -0.100 C 
ATOM     24  H1  LIG L   1     -36.083 -14.457 -24.237  1.00  0.00    -0.086 HD
ATOM     25  H2  LIG L   1     -34.295 -14.046 -25.127  1.00  0.00    -0.086 HD
ENDBRANCH   15   22
TORSDOF 2
ENDMDL
MODEL 2
REMARK VINA RESULT:    -7.358      1.955      5.753
REMARK INTER + INTRA:          -8.352
REMARK INTER:                  -8.226
REMARK INTRA:                  -0.126
REMARK UNBOUND:                -0.134
REMARK Flexibility Score: inf
REMARK Active torsions [ 2 ] -> [ 2 ]
ROOT
ATOM      1  C1  LIG L   1     -38.752 -19.022 -22.358  1.00  0.00     0.018 C 
ATOM      2  C2  LIG L   1     -38.045 -18.069 -24.605  1.00  0.00     0.018 C 
ATOM      3  C3  LIG L   1     -32.426 -20.906 -23.171  1.00  0.00     0.009 C 
ATOM      4  C4  LIG L   1     -35.087 -13.737 -20.606  1.00  0.00    -0.021 C 
ATOM      5  C5  LIG L   1     -33.960 -14.381 -21.103  1.00  0.00    -0.003 C 
ATOM      6  C6  LIG L   1     -36.330 -14.316 -20.830  1.00  0.00     0.083 C 
ATOM      7  C7  LIG L   1     -34.123 -15.573 -21.802  1.00  0.00     0.010 C 
ATOM      8  C8  LIG L   1     -36.213 -20.456 -24.067  1.00  0.00     0.005 C 
ATOM      9  C9  LIG L   1     -34.805 -21.107 -23.975  1.00  0.00     0.005 C 
ATOM     10 C10  LIG L   1     -37.091 -17.256 -22.522  1.00  0.00     0.051 C 
ATOM     11 C11  LIG L   1     -35.743 -17.201 -22.608  1.00  0.00    -0.015 C 
ATOM     12 C12  LIG L   1     -36.428 -15.464 -21.511  1.00  0.00     0.053 C 
ATOM     13 C13  LIG L   1     -35.343 -16.088 -21.991  1.00  0.00     0.002 C 
ATOM     14 C14  LIG L   1     -36.348 -19.323 -23.064  1.00  0.00     0.006 C 
ATOM     15 C15  LIG L   1     -33.940 -18.901 -22.908  1.00  0.00    -0.058 C 
ATOM     16 C16  LIG L   1     -35.288 -18.312 -23.337  1.00  0.00     0.012 C 
ATOM     17 C17  LIG L   1     -37.587 -18.409 -23.162  1.00  0.00     0.011 C 
ATOM     18 C18  LIG L   1     -33.588 -20.123 -23.810  1.00  0.00    -0.044 C 
ATOM     19  N1  LIG L   1     -37.493 -16.186 -21.842  1.00  0.00    -0.255 NA
ENDROOT
BRANCH   18   20
ATOM     20 C19  LIG L   1     -33.032 -19.606 -25.136  1.00  0.00     0.002 C 
ATOM     21 C20  LIG L   1     -32.113 -18.390 -25.231  1.00  0.00     0.004 C 
ENDBRANCH   18   20
BRANCH   15   22
ATOM     22  N2  LIG L   1     -33.994 -19.403 -21.536  1.00  0.00     0.380 N 
ATOM     23 C21  LIG L   1     -34.069 -19.814 -20.492  1.00  0.00    -0.100 C 
ATOM     24  H1  LIG L   1     -33.011 -19.670 -21.583  1.00  0.00    -0.086 HD
ATOM     25  H2  LIG L   1     -34.968 -19.106 -21.477  1.00  0.00    -0.086 HD
ENDBRANCH   15   22
TORSDOF 2
ENDMDL
MODEL 3
REMARK VINA RESULT:    -7.151      2.061      5.606
REMARK INTER + INTRA:          -8.121
REMARK INTER:                  -7.958
REMARK INTRA:                  -0.163
REMARK UNBOUND:                -0.134
REMARK Flexibility Score: inf
REMARK Active torsions [ 2 ] -> [ 2 ]
ROOT
ATOM      1  C1  LIG L   1     -32.681 -19.016 -25.408  1.00  0.00     0.018 C 
ATOM      2  C2  LIG L   1     -32.237 -19.996 -23.105  1.00  0.00     0.018 C 
ATOM      3  C3  LIG L   1     -38.682 -20.201 -22.799  1.00  0.00     0.009 C 
ATOM      4  C4  LIG L   1     -33.912 -13.857 -21.370  1.00  0.00    -0.021 C 
ATOM      5  C5  LIG L   1     -35.023 -14.532 -20.880  1.00  0.00    -0.003 C 
ATOM      6  C6  LIG L   1     -33.052 -14.533 -22.227  1.00  0.00     0.083 C 
ATOM      7  C7  LIG L   1     -35.226 -15.854 -21.264  1.00  0.00     0.010 C 
ATOM      8  C8  LIG L   1     -35.014 -20.970 -23.935  1.00  0.00     0.005 C 
ATOM      9  C9  LIG L   1     -36.528 -21.182 -23.660  1.00  0.00     0.005 C 
ATOM     10 C10  LIG L   1     -33.257 -17.806 -23.380  1.00  0.00     0.051 C 
ATOM     11 C11  LIG L   1     -34.356 -17.694 -22.600  1.00  0.00    -0.015 C 
ATOM     12 C12  LIG L   1     -33.296 -15.806 -22.562  1.00  0.00     0.053 C 
ATOM     13 C13  LIG L   1     -34.367 -16.461 -22.091  1.00  0.00     0.002 C 
ATOM     14 C14  LIG L   1     -34.667 -19.490 -23.924  1.00  0.00     0.006 C 
ATOM     15 C15  LIG L   1     -36.569 -18.846 -22.521  1.00  0.00    -0.058 C 
ATOM     16 C16  LIG L   1     -35.040 -18.921 -22.599  1.00  0.00     0.012 C 
ATOM     17 C17  LIG L   1     -33.176 -19.093 -23.948  1.00  0.00     0.011 C 
ATOM     18 C18  LIG L   1     -37.168 -20.286 -22.536  1.00  0.00    -0.044 C 
ATOM     19  N1  LIG L   1     -32.623 -16.638 -23.350  1.00  0.00    -0.255 NA
ENDROOT
BRANCH   18   20
ATOM     20 C19  LIG L   1     -37.044 -20.879 -21.133  1.00  0.00     0.002 C 
ATOM     21 C20  LIG L   1     -37.185 -20.041 -19.864  1.00  0.00     0.004 C 
ENDBRANCH   18   20
BRANCH   15   22
ATOM     22  N2  LIG L   1     -37.125 -18.156 -23.683  1.00  0.00     0.380 N 
ATOM     23 C21  LIG L   1     -37.544 -17.586 -24.558  1.00  0.00    -0.100 C 
ATOM     24  H1  LIG L   1     -36.498 -18.668 -24.303  1.00  0.00    -0.086 HD
ATOM     25  H2  LIG L   1     -37.775 -17.667 -23.068  1.00  0.00    -0.086 HD
ENDBRANCH   15   22
TORSDOF 2
ENDMDL
MODEL 4
REMARK VINA RESULT:    -6.836      1.658      5.706
REMARK INTER + INTRA:          -7.770
REMARK INTER:                  -7.645
REMARK INTRA:                  -0.125
REMARK UNBOUND:                -0.134
REMARK Flexibility Score: inf
REMARK Active torsions [ 2 ] -> [ 2 ]
ROOT
ATOM      1  C1  LIG L   1     -36.856 -15.634 -25.643  1.00  0.00     0.018 C 
ATOM      2  C2  LIG L   1     -34.988 -13.956 -26.039  1.00  0.00     0.018 C 
ATOM      3  C3  LIG L   1     -31.499 -18.206 -22.656  1.00  0.00     0.009 C 
ATOM      4  C4  LIG L   1     -36.432 -12.518 -19.766  1.00  0.00    -0.021 C 
ATOM      5  C5  LIG L   1     -35.181 -13.091 -19.576  1.00  0.00    -0.003 C 
ATOM      6  C6  LIG L   1     -37.050 -12.675 -21.001  1.00  0.00     0.083 C 
ATOM      7  C7  LIG L   1     -34.599 -13.795 -20.626  1.00  0.00     0.010 C 
ATOM      8  C8  LIG L   1     -33.634 -16.653 -25.550  1.00  0.00     0.005 C 
ATOM      9  C9  LIG L   1     -32.587 -17.548 -24.831  1.00  0.00     0.005 C 
ATOM     10 C10  LIG L   1     -35.892 -14.352 -23.817  1.00  0.00     0.051 C 
ATOM     11 C11  LIG L   1     -34.894 -14.539 -22.925  1.00  0.00    -0.015 C 
ATOM     12 C12  LIG L   1     -36.443 -13.361 -21.977  1.00  0.00     0.053 C 
ATOM     13 C13  LIG L   1     -35.236 -13.916 -21.797  1.00  0.00     0.002 C 
ATOM     14 C14  LIG L   1     -34.623 -16.074 -24.552  1.00  0.00     0.006 C 
ATOM     15 C15  LIG L   1     -33.109 -16.261 -22.635  1.00  0.00    -0.058 C 
ATOM     16 C16  LIG L   1     -33.872 -15.284 -23.538  1.00  0.00     0.012 C 
ATOM     17 C17  LIG L   1     -35.594 -14.980 -25.043  1.00  0.00     0.011 C 
ATOM     18 C18  LIG L   1     -32.021 -17.005 -23.467  1.00  0.00    -0.044 C 
ATOM     19  N1  LIG L   1     -36.837 -13.633 -23.216  1.00  0.00    -0.255 NA
ENDROOT
BRANCH   18   20
ATOM     20 C19  LIG L   1     -30.813 -16.083 -23.627  1.00  0.00     0.002 C 
ATOM     21 C20  LIG L   1     -29.822 -16.208 -24.781  1.00  0.00     0.004 C 
ENDBRANCH   18   20
BRANCH   15   22
ATOM     22  N2  LIG L   1     -33.997 -17.291 -22.100  1.00  0.00     0.380 N 
ATOM     23 C21  LIG L   1     -34.716 -18.060 -21.704  1.00  0.00    -0.100 C 
ATOM     24  H1  LIG L   1     -33.495 -18.010 -22.619  1.00  0.00    -0.086 HD
ATOM     25  H2  LIG L   1     -34.480 -16.576 -21.556  1.00  0.00    -0.086 HD
ENDBRANCH   15   22
TORSDOF 2
ENDMDL
MODEL 5
REMARK VINA RESULT:    -6.828      2.309      4.697
REMARK INTER + INTRA:          -7.761
REMARK INTER:                  -7.605
REMARK INTRA:                  -0.156
REMARK UNBOUND:                -0.134
REMARK Flexibility Score: inf
REMARK Active torsions [ 2 ] -> [ 2 ]
ROOT
ATOM      1  C1  LIG L   1     -30.707 -17.066 -24.864  1.00  0.00     0.018 C 
ATOM      2  C2  LIG L   1     -32.268 -18.640 -26.107  1.00  0.00     0.018 C 
ATOM      3  C3  LIG L   1     -36.848 -14.882 -23.542  1.00  0.00     0.009 C 
ATOM      4  C4  LIG L   1     -32.982 -21.003 -19.991  1.00  0.00    -0.021 C 
ATOM      5  C5  LIG L   1     -34.243 -20.446 -20.157  1.00  0.00    -0.003 C 
ATOM      6  C6  LIG L   1     -31.988 -20.676 -20.906  1.00  0.00     0.083 C 
ATOM      7  C7  LIG L   1     -34.460 -19.587 -21.231  1.00  0.00     0.010 C 
ATOM      8  C8  LIG L   1     -33.805 -16.024 -25.728  1.00  0.00     0.005 C 
ATOM      9  C9  LIG L   1     -35.066 -15.229 -25.288  1.00  0.00     0.005 C 
ATOM     10 C10  LIG L   1     -32.185 -18.588 -23.677  1.00  0.00     0.051 C 
ATOM     11 C11  LIG L   1     -33.432 -18.518 -23.162  1.00  0.00    -0.015 C 
ATOM     12 C12  LIG L   1     -32.253 -19.846 -21.921  1.00  0.00     0.053 C 
ATOM     13 C13  LIG L   1     -33.469 -19.305 -22.085  1.00  0.00     0.002 C 
ATOM     14 C14  LIG L   1     -33.192 -16.758 -24.547  1.00  0.00     0.006 C 
ATOM     15 C15  LIG L   1     -35.271 -16.832 -23.253  1.00  0.00    -0.058 C 
ATOM     16 C16  LIG L   1     -34.213 -17.678 -23.972  1.00  0.00     0.012 C 
ATOM     17 C17  LIG L   1     -32.073 -17.782 -24.828  1.00  0.00     0.011 C 
ATOM     18 C18  LIG L   1     -36.040 -15.958 -24.290  1.00  0.00    -0.044 C 
ATOM     19  N1  LIG L   1     -31.474 -19.401 -22.901  1.00  0.00    -0.255 NA
ENDROOT
BRANCH   18   20
ATOM     20 C19  LIG L   1     -37.088 -16.829 -24.980  1.00  0.00     0.002 C 
ATOM     21 C20  LIG L   1     -37.935 -17.856 -24.231  1.00  0.00     0.004 C 
ENDBRANCH   18   20
BRANCH   15   22
ATOM     22  N2  LIG L   1     -34.654 -15.905 -22.307  1.00  0.00     0.380 N 
ATOM     23 C21  LIG L   1     -34.142 -15.215 -21.581  1.00  0.00    -0.100 C 
ATOM     24  H1  LIG L   1     -34.896 -15.116 -22.905  1.00  0.00    -0.086 HD
ATOM     25  H2  LIG L   1     -34.441 -16.691 -21.692  1.00  0.00    -0.086 HD
ENDBRANCH   15   22
TORSDOF 2
ENDMDL
MODEL 6
REMARK VINA RESULT:    -6.788      1.837      5.654
REMARK INTER + INTRA:          -7.716
REMARK INTER:                  -7.580
REMARK INTRA:                  -0.136
REMARK UNBOUND:                -0.134
REMARK Flexibility Score: inf
REMARK Active torsions [ 2 ] -> [ 2 ]
ROOT
ATOM      1  C1  LIG L   1     -33.120 -17.022 -25.204  1.00  0.00     0.018 C 
ATOM      2  C2  LIG L   1     -31.851 -17.797 -23.143  1.00  0.00     0.018 C 
ATOM      3  C3  LIG L   1     -37.713 -19.659 -21.182  1.00  0.00     0.009 C 
ATOM      4  C4  LIG L   1     -34.529 -12.262 -20.755  1.00  0.00    -0.021 C 
ATOM      5  C5  LIG L   1     -35.259 -13.191 -20.025  1.00  0.00    -0.003 C 
ATOM      6  C6  LIG L   1     -33.780 -12.713 -21.836  1.00  0.00     0.083 C 
ATOM      7  C7  LIG L   1     -35.210 -14.529 -20.402  1.00  0.00     0.010 C 
ATOM      8  C8  LIG L   1     -34.402 -19.478 -23.267  1.00  0.00     0.005 C 
ATOM      9  C9  LIG L   1     -35.684 -20.069 -22.617  1.00  0.00     0.005 C 
ATOM     10 C10  LIG L   1     -33.434 -15.954 -23.043  1.00  0.00     0.051 C 
ATOM     11 C11  LIG L   1     -34.280 -16.112 -22.001  1.00  0.00    -0.015 C 
ATOM     12 C12  LIG L   1     -33.768 -14.013 -22.154  1.00  0.00     0.053 C 
ATOM     13 C13  LIG L   1     -34.473 -14.912 -21.451  1.00  0.00     0.002 C 
ATOM     14 C14  LIG L   1     -34.456 -17.960 -23.279  1.00  0.00     0.006 C 
ATOM     15 C15  LIG L   1     -36.022 -17.797 -21.402  1.00  0.00    -0.058 C 
ATOM     16 C16  LIG L   1     -34.601 -17.474 -21.878  1.00  0.00     0.012 C 
ATOM     17 C17  LIG L   1     -33.177 -17.190 -23.671  1.00  0.00     0.011 C 
ATOM     18 C18  LIG L   1     -36.213 -19.342 -21.326  1.00  0.00    -0.044 C 
ATOM     19  N1  LIG L   1     -33.136 -14.661 -23.126  1.00  0.00    -0.255 NA
ENDROOT
BRANCH   18   20
ATOM     20 C19  LIG L   1     -35.578 -19.849 -20.032  1.00  0.00     0.002 C 
ATOM     21 C20  LIG L   1     -34.480 -20.910 -20.009  1.00  0.00     0.004 C 
ENDBRANCH   18   20
BRANCH   15   22
ATOM     22  N2  LIG L   1     -37.022 -17.303 -22.347  1.00  0.00     0.380 N 
ATOM     23 C21  LIG L   1     -37.770 -16.883 -23.075  1.00  0.00    -0.100 C 
ATOM     24  H1  LIG L   1     -36.833 -18.085 -22.973  1.00  0.00    -0.086 HD
ATOM     25  H2  LIG L   1     -37.233 -16.538 -21.706  1.00  0.00    -0.086 HD
ENDBRANCH   15   22
TORSDOF 2
ENDMDL
MODEL 7
REMARK VINA RESULT:    -6.347      1.815      4.033
REMARK INTER + INTRA:          -7.224
REMARK INTER:                  -7.091
REMARK INTRA:                  -0.133
REMARK UNBOUND:                -0.134
REMARK Flexibility Score: inf
REMARK Active torsions [ 2 ] -> [ 2 ]
ROOT
ATOM      1  C1  LIG L   1     -31.981 -17.874 -22.362  1.00  0.00     0.018 C 
ATOM      2  C2  LIG L   1     -32.275 -17.367 -24.835  1.00  0.00     0.018 C 
ATOM      3  C3  LIG L   1     -36.808 -13.311 -22.672  1.00  0.00     0.009 C 
ATOM      4  C4  LIG L   1     -37.521 -21.251 -23.889  1.00  0.00    -0.021 C 
ATOM      5  C5  LIG L   1     -38.178 -20.043 -24.088  1.00  0.00    -0.003 C 
ATOM      6  C6  LIG L   1     -36.148 -21.230 -23.673  1.00  0.00     0.083 C 
ATOM      7  C7  LIG L   1     -37.436 -18.866 -24.065  1.00  0.00     0.010 C 
ATOM      8  C8  LIG L   1     -33.293 -14.912 -23.324  1.00  0.00     0.005 C 
ATOM      9  C9  LIG L   1     -34.371 -13.828 -23.042  1.00  0.00     0.005 C 
ATOM     10 C10  LIG L   1     -34.006 -18.495 -23.554  1.00  0.00     0.051 C 
ATOM     11 C11  LIG L   1     -35.210 -17.922 -23.777  1.00  0.00    -0.015 C 
ATOM     12 C12  LIG L   1     -35.485 -20.067 -23.662  1.00  0.00     0.053 C 
ATOM     13 C13  LIG L   1     -36.115 -18.899 -23.853  1.00  0.00     0.002 C 
ATOM     14 C14  LIG L   1     -33.836 -16.300 -23.031  1.00  0.00     0.006 C 
ATOM     15 C15  LIG L   1     -36.184 -15.667 -23.331  1.00  0.00    -0.058 C 
ATOM     16 C16  LIG L   1     -35.041 -16.531 -23.876  1.00  0.00     0.012 C 
ATOM     17 C17  LIG L   1     -32.995 -17.517 -23.468  1.00  0.00     0.011 C 
ATOM     18 C18  LIG L   1     -35.835 -14.158 -23.512  1.00  0.00    -0.044 C 
ATOM     19  N1  LIG L   1     -34.194 -19.809 -23.480  1.00  0.00    -0.255 NA
ENDROOT
BRANCH   18   20
ATOM     20 C19  LIG L   1     -36.119 -13.764 -24.961  1.00  0.00     0.002 C 
ATOM     21 C20  LIG L   1     -35.376 -12.635 -25.672  1.00  0.00     0.004 C 
ENDBRANCH   18   20
BRANCH   15   22
ATOM     22  N2  LIG L   1     -36.370 -15.879 -21.897  1.00  0.00     0.380 N 
ATOM     23 C21  LIG L   1     -36.493 -16.081 -20.798  1.00  0.00    -0.100 C 
ATOM     24  H1  LIG L   1     -35.901 -14.996 -21.694  1.00  0.00    -0.086 HD
ATOM     25  H2  LIG L   1     -36.868 -16.746 -22.101  1.00  0.00    -0.086 HD
ENDBRANCH   15   22
TORSDOF 2
ENDMDL
MODEL 8
REMARK VINA RESULT:    -6.241      2.277      4.973
REMARK INTER + INTRA:          -7.105
REMARK INTER:                  -7.214
REMARK INTRA:                   0.109
REMARK UNBOUND:                -0.134
REMARK Flexibility Score: inf
REMARK Active torsions [ 2 ] -> [ 2 ]
ROOT
ATOM      1  C1  LIG L   1     -37.627 -17.071 -24.778  1.00  0.00     0.018 C 
ATOM      2  C2  LIG L   1     -36.753 -15.329 -23.147  1.00  0.00     0.018 C 
ATOM      3  C3  LIG L   1     -31.116 -18.293 -24.200  1.00  0.00     0.009 C 
ATOM      4  C4  LIG L   1     -36.969 -20.562 -19.138  1.00  0.00    -0.021 C 
ATOM      5  C5  LIG L   1     -35.591 -20.418 -19.234  1.00  0.00    -0.003 C 
ATOM      6  C6  LIG L   1     -37.771 -19.859 -20.029  1.00  0.00     0.083 C 
ATOM      7  C7  LIG L   1     -35.072 -19.577 -20.214  1.00  0.00     0.010 C 
ATOM      8  C8  LIG L   1     -34.363 -16.198 -24.843  1.00  0.00     0.005 C 
ATOM      9  C9  LIG L   1     -32.899 -16.698 -24.989  1.00  0.00     0.005 C 
ATOM     10 C10  LIG L   1     -36.816 -17.691 -22.572  1.00  0.00     0.051 C 
ATOM     11 C11  LIG L   1     -35.631 -18.084 -22.053  1.00  0.00    -0.015 C 
ATOM     12 C12  LIG L   1     -37.218 -19.062 -20.951  1.00  0.00     0.053 C 
ATOM     13 C13  LIG L   1     -35.888 -18.921 -21.047  1.00  0.00     0.002 C 
ATOM     14 C14  LIG L   1     -35.204 -17.212 -24.087  1.00  0.00     0.006 C 
ATOM     15 C15  LIG L   1     -33.301 -18.238 -22.935  1.00  0.00    -0.058 C 
ATOM     16 C16  LIG L   1     -34.594 -17.437 -22.747  1.00  0.00     0.012 C 
ATOM     17 C17  LIG L   1     -36.621 -16.794 -23.642  1.00  0.00     0.011 C 
ATOM     18 C18  LIG L   1     -32.263 -17.383 -23.724  1.00  0.00    -0.044 C 
ATOM     19  N1  LIG L   1     -37.777 -18.305 -21.889  1.00  0.00    -0.255 NA
ENDROOT
BRANCH   18   20
ATOM     20 C19  LIG L   1     -31.608 -16.398 -22.756  1.00  0.00     0.002 C 
ATOM     21 C20  LIG L   1     -32.300 -15.124 -22.276  1.00  0.00     0.004 C 
ENDBRANCH   18   20
BRANCH   15   22
ATOM     22  N2  LIG L   1     -33.535 -19.441 -23.731  1.00  0.00     0.380 N 
ATOM     23 C21  LIG L   1     -33.684 -20.353 -24.373  1.00  0.00    -0.100 C 
ATOM     24  H1  LIG L   1     -33.333 -20.029 -22.923  1.00  0.00    -0.086 HD
ATOM     25  H2  LIG L   1     -33.768 -18.853 -24.532  1.00  0.00    -0.086 HD
ENDBRANCH   15   22
TORSDOF 2
ENDMDL
MODEL 9
REMARK VINA RESULT:    -6.223      2.043      4.065
REMARK INTER + INTRA:          -7.085
REMARK INTER:                  -6.951
REMARK INTRA:                  -0.134
REMARK UNBOUND:                -0.134
REMARK Flexibility Score: inf
REMARK Active torsions [ 2 ] -> [ 2 ]
ROOT
ATOM      1  C1  LIG L   1     -33.956 -15.376 -25.758  1.00  0.00     0.018 C 
ATOM      2  C2  LIG L   1     -36.469 -15.200 -26.093  1.00  0.00     0.018 C 
ATOM      3  C3  LIG L   1     -36.130 -11.462 -20.841  1.00  0.00     0.009 C 
ATOM      4  C4  LIG L   1     -36.334 -19.519 -21.110  1.00  0.00    -0.021 C 
ATOM      5  C5  LIG L   1     -36.864 -18.426 -20.436  1.00  0.00    -0.003 C 
ATOM      6  C6  LIG L   1     -35.783 -19.316 -22.369  1.00  0.00     0.083 C 
ATOM      7  C7  LIG L   1     -36.823 -17.177 -21.049  1.00  0.00     0.010 C 
ATOM      8  C8  LIG L   1     -35.634 -12.717 -24.519  1.00  0.00     0.005 C 
ATOM      9  C9  LIG L   1     -35.792 -11.738 -23.322  1.00  0.00     0.005 C 
ATOM     10 C10  LIG L   1     -35.519 -16.360 -24.179  1.00  0.00     0.051 C 
ATOM     11 C11  LIG L   1     -36.120 -15.959 -23.036  1.00  0.00    -0.015 C 
ATOM     12 C12  LIG L   1     -35.771 -18.093 -22.912  1.00  0.00     0.053 C 
ATOM     13 C13  LIG L   1     -36.282 -17.035 -22.264  1.00  0.00     0.002 C 
ATOM     14 C14  LIG L   1     -35.292 -14.114 -24.029  1.00  0.00     0.006 C 
ATOM     15 C15  LIG L   1     -36.264 -13.793 -21.804  1.00  0.00    -0.058 C 
ATOM     16 C16  LIG L   1     -36.372 -14.579 -23.115  1.00  0.00     0.012 C 
ATOM     17 C17  LIG L   1     -35.322 -15.270 -25.050  1.00  0.00     0.011 C 
ATOM     18 C18  LIG L   1     -36.566 -12.286 -22.067  1.00  0.00    -0.044 C 
ATOM     19  N1  LIG L   1     -35.307 -17.669 -24.083  1.00  0.00    -0.255 NA
ENDROOT
BRANCH   18   20
ATOM     20 C19  LIG L   1     -38.080 -12.100 -22.149  1.00  0.00     0.002 C 
ATOM     21 C20  LIG L   1     -38.745 -11.138 -23.131  1.00  0.00     0.004 C 
ENDBRANCH   18   20
BRANCH   15   22
ATOM     22  N2  LIG L   1     -34.909 -13.854 -21.260  1.00  0.00     0.380 N 
ATOM     23 C21  LIG L   1     -33.852 -13.919 -20.880  1.00  0.00    -0.100 C 
ATOM     24  H1  LIG L   1     -34.931 -12.854 -21.061  1.00  0.00    -0.086 HD
ATOM     25  H2  LIG L   1     -34.898 -14.860 -21.428  1.00  0.00    -0.086 HD
ENDBRANCH   15   22
TORSDOF 2
ENDMDL
