REMARK Flexibility Score: inf
REMARK Active torsions [ 2 ] -> [ 2 ]
ROOT
ATOM      1  C1  LIG L   1     -37.793 -18.121 -23.228  1.00  0.00     0.018 C 
ATOM      2  C2  LIG L   1     -36.473 -17.857 -21.072  1.00  0.00     0.018 C 
ATOM      3  C3  LIG L   1     -35.236 -11.986 -23.455  1.00  0.00     0.009 C 
ATOM      4  C4  LIG L   1     -31.497 -18.896 -25.275  1.00  0.00    -0.021 C 
ATOM      5  C5  LIG L   1     -31.259 -17.559 -24.982  1.00  0.00    -0.003 C 
ATOM      6  C6  LIG L   1     -32.713 -19.450 -24.893  1.00  0.00     0.083 C 
ATOM      7  C7  LIG L   1     -32.244 -16.833 -24.319  1.00  0.00     0.010 C 
ATOM      8  C8  LIG L   1     -37.209 -15.033 -21.983  1.00  0.00     0.005 C 
ATOM      9  C9  LIG L   1     -36.836 -13.561 -22.313  1.00  0.00     0.005 C 
ATOM     10 C10  LIG L   1     -35.369 -17.939 -23.237  1.00  0.00     0.051 C 
ATOM     11 C11  LIG L   1     -34.476 -16.931 -23.352  1.00  0.00    -0.015 C 
ATOM     12 C12  LIG L   1     -33.624 -18.705 -24.256  1.00  0.00     0.053 C 
ATOM     13 C13  LIG L   1     -33.398 -17.414 -23.972  1.00  0.00     0.002 C 
ATOM     14 C14  LIG L   1     -36.475 -15.993 -22.904  1.00  0.00     0.006 C 
ATOM     15 C15  LIG L   1     -34.646 -14.441 -23.400  1.00  0.00    -0.058 C 
ATOM     16 C16  LIG L   1     -35.009 -15.780 -22.748  1.00  0.00     0.012 C 
ATOM     17 C17  LIG L   1     -36.537 -17.501 -22.581  1.00  0.00     0.011 C 
ATOM     18 C18  LIG L   1     -35.319 -13.274 -22.615  1.00  0.00    -0.044 C 
ATOM     19  N1  LIG L   1     -34.833 -19.017 -23.802  1.00  0.00    -0.255 NA
ENDROOT
BRANCH   18   20
ATOM     20 C19  LIG L   1     -34.488 -12.984 -21.366  1.00  0.00     0.002 C 
ATOM     21 C20  LIG L   1     -34.816 -13.576 -19.997  1.00  0.00     0.004 C 
ENDBRANCH   18   20
BRANCH   15   22
ATOM     22  N2  LIG L   1     -35.152 -14.364 -24.769  1.00  0.00     0.380 N 
ATOM     23 C21  LIG L   1     -35.564 -14.268 -25.811  1.00  0.00    -0.100 C 
ATOM     24  H1  LIG L   1     -34.200 -14.379 -25.134  1.00  0.00    -0.086 HD
ATOM     25  H2  LIG L   1     -36.105 -14.382 -24.406  1.00  0.00    -0.086 HD
ENDBRANCH   15   22
TORSDOF 2
