welo5
  PyMOL2.5          3D                             0

 23 26  0  0  0  0  0  0  0  0999 V2000
  -34.8160  -13.5760  -19.9970 C   0  0  0  0  0  0  0  0  0  0  0  0
  -37.7930  -18.1210  -23.2280 C   0  0  0  0  0  0  0  0  0  0  0  0
  -36.4730  -17.8570  -21.0720 C   0  0  0  0  0  0  0  0  0  0  0  0
  -35.2360  -11.9860  -23.4550 C   0  0  0  0  0  0  0  0  0  0  0  0
  -35.5640  -14.2680  -25.8110 C   0  0  0  0  0  0  0  0  0  0  0  0
  -34.4880  -12.9840  -21.3660 C   0  0  0  0  0  0  0  0  0  0  0  0
  -31.4970  -18.8960  -25.2750 C   0  0  0  0  0  0  0  0  0  0  0  0
  -31.2590  -17.5590  -24.9820 C   0  0  0  0  0  0  0  0  0  0  0  0
  -32.7130  -19.4500  -24.8930 C   0  0  0  0  0  0  0  0  0  0  0  0
  -32.2440  -16.8330  -24.3190 C   0  0  0  0  0  0  0  0  0  0  0  0
  -37.2090  -15.0330  -21.9830 C   0  0  0  0  0  0  0  0  0  0  0  0
  -36.8360  -13.5610  -22.3130 C   0  0  0  0  0  0  0  0  0  0  0  0
  -35.3690  -17.9390  -23.2370 C   0  0  0  0  0  0  0  0  0  0  0  0
  -34.4760  -16.9310  -23.3520 C   0  0  0  0  0  0  0  0  0  0  0  0
  -33.6240  -18.7050  -24.2560 C   0  0  0  0  0  0  0  0  0  0  0  0
  -33.3980  -17.4140  -23.9720 C   0  0  0  0  0  0  0  0  0  0  0  0
  -36.4750  -15.9930  -22.9040 C   0  0  0  0  0  0  0  0  0  0  0  0
  -34.6460  -14.4410  -23.4000 C   0  0  0  0  0  0  0  0  0  0  0  0
  -35.0090  -15.7800  -22.7480 C   0  0  0  0  0  0  0  0  0  0  0  0
  -36.5370  -17.5010  -22.5810 C   0  0  0  0  0  0  0  0  0  0  0  0
  -35.3190  -13.2740  -22.6150 C   0  0  0  0  0  0  0  0  0  0  0  0
  -34.8330  -19.0170  -23.8020 N   0  0  0  0  0  0  0  0  0  0  0  0
  -35.1520  -14.3640  -24.7690 N   0  0  0  0  0  0  0  0  0  0  0  0
  1  6  1  0  0  0  0
  2 20  1  0  0  0  0
  3 20  1  0  0  0  0
  4 21  1  0  0  0  0
  5 23  1  0  0  0  0
  6 21  1  0  0  0  0
  7  8  4  0  0  0  0
  7  9  4  0  0  0  0
  8 10  4  0  0  0  0
  9 15  4  0  0  0  0
 10 16  4  0  0  0  0
 11 12  1  0  0  0  0
 11 17  1  0  0  0  0
 12 21  1  0  0  0  0
 13 14  4  0  0  0  0
 13 20  1  0  0  0  0
 13 22  4  0  0  0  0
 14 16  4  0  0  0  0
 14 19  1  0  0  0  0
 15 16  4  0  0  0  0
 15 22  4  0  0  0  0
 17 19  1  0  0  0  0
 17 20  1  0  0  0  0
 18 19  1  0  0  0  0
 18 21  1  0  0  0  0
 18 23  1  0  0  0  0
M  END
>  <pdb_header>


$$$$
